---- qbsp / ericw-tools v0.18.1 ----
Input file: NoahHoustonDeadShip.map
Output file: NoahHoustonDeadShip.bsp

---- LoadMapFile ----
         1780 faces
          320 brushes
           91 entities
            5 unique texnames
           98 texinfo

Opened WAD: ../wads/prototype_1_3.wad
Processing hull 0...
---- Brush_LoadEntity ----
          317 brushes
          314 planes
---- CSGFaces ----
         1762 brushfaces
         1492 csgfaces
         1257 mergedfaces
---- SolidBSP ----
         2078 split nodes
          973 solid leafs
         1103 empty leafs
            3 water leafs
            0 detail leafs
            0 detail illusionary leafs
            0 detail fence leafs
            0 illusionary visblocker leafs
         3435 leaffaces
         3282 nodefaces
---- Portalize ----
         1106 vis leafs
         1106 vis clusters
         2543 vis portals
---- FillOutside ----
          766 outleafs
---- MergeAll ----
          813 mergefaces
---- SolidBSP ----
          554 split nodes
          333 solid leafs
          219 empty leafs
            3 water leafs
            0 detail leafs
            0 detail illusionary leafs
            0 detail fence leafs
            0 illusionary visblocker leafs
         1542 leaffaces
         1233 nodefaces
---- Portalize ----
          222 vis leafs
          222 vis clusters
          517 vis portals
---- Tjunc ----
         1259 world edges
         4341 edge points
         1005 edges added by tjunctions
            0 faces added by tjunctions
---- MakeFaceEdges ----
---- GrowRegions ----
Processing hull 1...
Processing hull 2...
---- WriteBSPFile ----
Wrote NoahHoustonDeadShip.bsp
          527 planes            10540
         1657 vertexes          19884
          572 nodes             13728
           69 texinfo            2760
         1251 faces             25020
         1424 clipnodes         11392
          241 leafs              6748
         1560 marksurfaces       3120
         5874 surfedges         23496
         2940 edges             11760
            5 textures          76384
              lightdata             0
              visdata               0
              entdata            5201

0.366 seconds elapsed
Peak memory usage: 12634572 (12.0M)
